/*--------------------------------*- C++ -*----------------------------------*\
| =========                 |                                                 |
| \\      /  F ield         | OpenFOAM: The Open Source CFD Toolbox           |
|  \\    /   O peration     | Version:  4.x                                   |
|   \\  /    A nd           | Web:      www.OpenFOAM.org                      |
|    \\/     M anipulation  |                                                 |
\*---------------------------------------------------------------------------*/
FoamFile
{
    version     2.0;
    format      ascii;
    class       dictionary;
    location    "system";
    object      fvSchemes;
}
// * * * * * * * * * * * * * * * * * * * * * * * * * * * * * * * * * * * * * //

ddtSchemes
{
    default         Euler;
}

gradSchemes
{
    default         Gauss linear;
}

divSchemes
{
    default         			Gauss linear;
    div(phi,U)      			Gauss upwind;
    div(phi,k)      			Gauss upwind;
    div(phi,epsilon) 			Gauss upwind;
    div(phi,omega)  			Gauss upwind;
    div(phi,r)					Gauss upwind;
    div(phi,divR)				Gauss upwind;
    div(phi,t)					Gauss upwind;
    div(phi,R)      			Gauss upwind;
    div(dev(R))          		Gauss linear;
    div(phi,nuTilda) 			Gauss limitedLinear 1;
    div((nuEff*dev2(T(grad(U))))) 	Gauss linear;
}

laplacianSchemes
{
    default         Gauss linear corrected;
}

interpolationSchemes
{
    default         linear;
}

snGradSchemes
{
    default         corrected;
}
wallDist
{
    method meshWave;
}



// ************************************************************************* //
