/*--------------------------------*- C++ -*----------------------------------*\
| =========                 |                                                 |
| \\      /  F ield         | OpenFOAM: The Open Source CFD Toolbox           |
|  \\    /   O peration     | Version:  4.x                                   |
|   \\  /    A nd           | Web:      www.OpenFOAM.org                      |
|    \\/     M anipulation  |                                                 |
\*---------------------------------------------------------------------------*/
FoamFile
{
    version     2.0;
    format      ascii;
    class       polyBoundaryMesh;
    location    "constant/polyMesh";
    object      boundary;
}
// * * * * * * * * * * * * * * * * * * * * * * * * * * * * * * * * * * * * * //

5
(
    fixedWalls
    {
        type            wall;
        inGroups        1(wall);
        nFaces          250;
        startFace       31000;
    }
    inlet
    {
        type            cyclic;
        inGroups        1(cyclic);
        nFaces          15625;
        startFace       31250;
        matchTolerance  0.0001;
        transform       unknown;
        neighbourPatch  outlet;
    }
    outlet
    {
        type            cyclic;
        inGroups        1(cyclic);
        nFaces          15625;
        startFace       46875;
        matchTolerance  0.0001;
        transform       unknown;
        neighbourPatch  inlet;
    }
    symmetry0
    {
        type            symmetryPlane;
        inGroups        1(symmetryPlane);
        nFaces          125;
        startFace       62500;
    }
    symmetry1
    {
        type            symmetryPlane;
        inGroups        1(symmetryPlane);
        nFaces          125;
        startFace       62625;
    }
)

// ************************************************************************* //
