/*--------------------------------*- C++ -*----------------------------------*\
| =========                 |                                                 |
| \\      /  F ield         | OpenFOAM: The Open Source CFD Toolbox           |
|  \\    /   O peration     | Version:  2306                                  |
|   \\  /    A nd           | Website:  www.openfoam.com                      |
|    \\/     M anipulation  |                                                 |
\*---------------------------------------------------------------------------*/
// * * * * * * * * * * * * * * * * * * * * * * * * * * * * * * * * * * * * * //
FoamFile
{
    version         2;
    format          ascii;
    class           dictionary;
    location        "system";
    object          fvSolution;
}

solvers
{
    p
    {
        solver          PCG;
        preconditioner
        {
            preconditioner  GAMG;
            smoother        DIC;
            cacheAgglomeration true;
            nCellsInCoarsestLevel 40;
            agglomerator    faceAreaPair;
            mergeLevels     2;
        }
        tolerance       0;
        relTol          0.0001;
        minIter         0;
        maxIter         800;
    }
    "(U|k|epsilon|R)"
    {
        solver          PBiCGStab;
        preconditioner  DILU;
        tolerance       0;
        relTol          0.001;
    }
    pFinal
    {
        solver          PCG;
        preconditioner
        {
            preconditioner  GAMG;
            smoother        DIC;
            cacheAgglomeration true;
            nCellsInCoarsestLevel 40;
            agglomerator    faceAreaPair;
            mergeLevels     2;
        }
        tolerance       1e-07;
        relTol          0;
        minIter         0;
        maxIter         800;
    }
    "(U|k|epsilon|R)Final"
    {
        solver          PBiCGStab;
        preconditioner  DILU;
        tolerance       1e-07;
        relTol          0;
    }
}

SIMPLE
{
    nNonOrthogonalCorrectors 2;
    consistent      yes;
    pRefCell        0;
    pRefValue       0;
    residualControl
    {
        p               1e-07;
        "(U|k|epsilon|R)" 1e-07;
    }
}

relaxationFactors
{
    equations
    {
        p               0.3;
        U               0.3;
		R               0.3;
        "(k|epsilon)"   0.7;
    }
}


// ************************************************************************* //
