/*--------------------------------*- C++ -*----------------------------------*\
| =========                 |                                                 |
| \\      /  F ield         | OpenFOAM: The Open Source CFD Toolbox           |
|  \\    /   O peration     | Version:  2306                                  |
|   \\  /    A nd           | Website:  www.openfoam.com                      |
|    \\/     M anipulation  |                                                 |
\*---------------------------------------------------------------------------*/
// * * * * * * * * * * * * * * * * * * * * * * * * * * * * * * * * * * * * * //
FoamFile
{
    version         2;
    format          ascii;
    class           dictionary;
    location        "constant";
    object          transportProperties;
}

gradP           gradP [ 0 1 -2 0 0 0 0 ] ( 0.00200535 0 0 );

transportModel  Newtonian;

nu              nu [ 0 2 -1 0 0 0 0 ] 0.00016619;


// ************************************************************************* //
